70
Properties=species:S:1:pos:R:3:tags:I:1:momenta:R:3:forces:R:3 energy=127.33844736524424 pbc="F F F"
F       -4.10194143       2.86575708       3.57891755        0     293.39859339     -63.76038020     151.07215175      -0.49657564       2.05360323      -0.11054416
C       -3.80202413       1.54851812       3.65840525        0     179.55301743     -41.36600923     103.71865874      -0.38674266       1.22841777      -0.02319968
C       -4.61038849       0.61617282       3.04361225        0     168.51787794     -43.62150334     121.02088282      -0.77220207       0.24779179      -0.39530243
C       -4.29438166      -0.72399430       3.12323908        0     157.41981812     -45.76769761     133.78110468      -0.80861685      -0.81349415      -0.53289455
F       -5.11652319      -1.65176691       2.57748066        0     246.11289830     -70.23530337     211.85974766      -1.31530168      -1.41606690      -0.83126459
C       -3.15443860      -1.11296319       3.79925128        0     155.33181220     -48.79452175     136.02101110       0.19644049      -0.69155995       0.08792811
C       -2.32132360      -0.20690999       4.42617470        0     164.16120639     -43.08265990     117.41758742       1.34226729      -0.58983345       0.82827914
C        0.08440584      -1.06995024       5.29748198        0    -145.24525019      64.58041577      81.77174136      -1.21420682       0.39191530      -0.00781377
C        1.39461435      -0.61127135       4.79745149        0    -152.10685797      71.35008033      44.47406898      -0.40562485      -0.24245122       0.34170299
C        2.15007259      -1.47815233       4.02302413        0    -155.02419300      77.02262609      35.97853731       0.22898247      -0.90799124       0.05548244
C        3.26246581      -1.02380167       3.35988427        0    -140.89098128      71.59730851      52.32711643       0.84911206      -0.91770922      -0.51926668
F        3.98337140      -1.86490958       2.58262914        0    -231.99741109     111.88368974      75.18320370       1.21433466      -1.41311924      -1.07085150
C        3.62645781       0.28341574       3.52869751        0    -122.30934297      67.79337596      64.13673258       0.77852728       0.17152080       0.04523695
C        2.96226963       1.14404430       4.36442548        0    -136.55266489      65.39404372      58.80947083       0.61770105       1.21667955       0.39845143
F        3.32067268       2.41957736       4.51515229        0    -185.90497792      98.49484168     125.11699897       0.64749880       2.08381285       0.30781674
C        1.80951559       0.68633347       4.96768279        0    -141.17758898      68.67088275      54.66574494      -0.06436014       0.66347547       0.40467795
C       -2.66876511       1.13058182       4.32656272        0     178.72877249     -40.78952841     105.88439167       0.33163575       0.47895389       0.30857031
H       -5.47525752       0.94319118       2.49704177        0      13.88072624      -3.75841867      10.48760041      -1.81388369       0.67421801      -1.13852386
H       -2.95530298      -2.16420381       3.87690536        0      12.97451525      -4.12136031      11.77745460       0.42435018      -2.17274990       0.18584165
H        0.08316053      -2.16958914       5.19250419        0     -11.79238418       5.43060320       7.61386462      -0.33298906      -2.05206118      -0.19151901
H        1.79829948      -2.46877903       3.82056627        0     -12.25795376       6.00108905       3.63572947      -0.63716488      -2.15184275      -0.44085792
H        4.42396498       0.66497018       2.96009629        0      -7.97847400       4.91387498       7.32305143       1.76327147       0.79580151      -1.03057801
H        1.24034395       1.38013377       5.54357624        0     -11.16402580       5.19680043       6.22747414      -1.10796878       1.60687017       1.16182201
H       -2.02703909       1.87579305       4.75343381        0      15.11375696      -3.47133480       8.88496453       1.30363444       1.56329874       0.86982576
C        0.59896129      -0.44744188      10.95711523        0      -2.79428736       5.84749231     -14.79080163       0.19261034      -0.00859743       0.40771769
C        0.05511013      -0.44891867       9.59125838        0     -10.08077744      20.12794657     -13.04398984       0.55601600      -0.32947854       0.24298620
C       -1.08319475       0.13455532       9.16458113        0     -17.14504761      20.44017654       3.07327831      -0.72705517       0.48143216       0.36940661
C       -1.33314492      -0.01655394       7.77045536        0     -27.94973681      34.05351639       2.50200570      -0.73433941       0.30193019      -0.05147622
C       -0.36984049      -0.70782874       7.13663448        0     -32.46407917      41.70239369     -16.03448566       0.23192743      -0.71521792      -0.75669358
B        0.28135061      -1.63673591      -0.80516508        0      43.10785227      -4.22596670    -106.15284703       0.44556177       0.59249127      -0.12989122
C        0.85492218      -0.14199401      -0.58896092        0      77.29683139     -26.68252091    -122.99439186      -0.47872055      -0.74012797       0.01787234
C        2.19464229       0.01437809      -0.38746038        0      78.33836329     -49.24713717     -99.01342989       0.59989735      -0.35926229      -0.14914729
C        2.80336003       1.24715128      -0.28387034        0      79.32706468     -50.92347210     -89.47473605       1.48960921       0.08015302       0.10445437
C        4.83386982       1.66880202      -0.20169793        0     -69.96521560    -148.69910135     -28.99338461       0.08312049       0.12179662      -0.31946392
F        5.13763538       2.97060717      -0.07829027        0     -77.82867427    -241.24680154     -55.53616222       0.64565501       1.95878231       0.13235935
F        5.20104972       1.05465883       0.90254044        0    -174.17234424    -246.25591352     -20.98830601       0.94660038      -0.79765958       1.39069221
F        5.46517923       1.14962195      -1.26523125        0     -95.24561559    -273.91593481     -19.05620432       1.05684482      -0.71956662      -1.62128909
C        2.03689191       2.38552375      -0.39327311        0      89.17083831     -44.85599210    -101.09209479       0.54996836       0.55926984       0.10852153
C        0.68967422       2.27863068      -0.64025683        0      90.22880931     -34.04385855    -115.47538008      -0.35870008       0.48714206      -0.01705351
C       -0.11269330       3.54633224      -0.82789631        0      95.55325704     -29.99588452    -110.30134601      -0.53804673       0.82367284      -0.14496999
F       -1.36034130       3.24391552      -1.21058523        0     138.62727141     -46.89628512    -139.37042322      -2.20380708      -0.02236113      -0.67964273
F       -0.13535413       4.21060699       0.33648919        0     185.15780244     -35.35569543    -179.23233046      -0.27142062       1.36285502       1.84953676
F        0.45608210       4.31378846      -1.77194936        0     145.34464952     -67.88575971    -195.48125480       0.67347747       1.51902131      -1.62717745
C        0.13256561       1.02612339      -0.78109979        0      76.58103294     -28.27761703    -116.27474558      -0.63412041      -0.17065294      -0.07412079
O        0.91141330      -2.86373602      -0.57190440        0      99.16978614      13.37522235    -180.50288704       2.09376599       0.04931539       0.77540298
C        0.38482801      -4.08305924      -0.97552154        0      61.73501548      16.46304943    -148.67139718       1.00456881      -0.42140300       0.08598412
C       -1.14280884      -4.20316718      -0.76803428        0      64.62037394      19.72731552    -115.23560379      -0.26508378      -0.54959077      -0.04758408
C       -1.72263887      -5.48003837      -1.39724134        0      56.35040827      18.30597656    -105.75542768      -0.32312708      -0.86698333      -0.34677187
C       -1.43401588      -4.19477019       0.72462696        0      91.41847532      19.34149201    -108.44313283      -0.34792791      -0.36026268       0.93694828
C       -1.73796851      -2.95533849      -1.45968462        0      42.51447515      19.89714495     -99.87287742      -0.71178277       0.55667654      -0.46420517
O       -1.06413152      -1.75952289      -1.25234147        0      62.41271257      26.17864436    -123.75759518      -1.00533391       1.79149239      -0.55075309
S        0.82665165      -1.23986163       8.27309340        0     -36.97411466     120.09615261     -89.78410594       2.10253107      -1.71318599       0.09943955
H       -0.05382454       0.08852672      11.64059262        0       0.19509689      -0.07636461      -0.30154043      -1.07016624       0.97822538       1.54801136
H        0.70461679      -1.46205469      11.32894893        0       0.08648088       0.10912353      -2.23694821       0.26930215      -1.85868379       0.99333018
H        1.58020760       0.02572153      10.98111536        0      -0.24059082       0.50878470      -1.31516667       1.87839824       0.89937849       0.34495246
H       -1.74689041       0.66299864       9.82565446        0      -0.89432709       1.31620275       1.20843562      -1.44946536       1.12338675       1.30010531
H       -2.21207068       0.37354046       7.28237261        0      -2.60392199       3.23271696       0.92917609      -1.79195996       0.81532503      -0.76080498
H        2.80443735      -0.85978920      -0.28084305        0       5.93200064      -4.70304610      -7.94993567       1.41095214      -1.74885947       0.17738691
H        2.49318558       3.36289482      -0.32252616        0       7.97311605      -4.09137064      -7.45002142       0.99500525       1.99032678       0.17828811
H       -0.88377257       0.99457266      -1.11783039        0       5.71392896      -2.77983980      -7.91197768      -2.15054467      -0.14554830      -0.70342814
H        0.59057998      -4.16775038      -2.03276787        0       3.75137177       2.84649124     -13.13678318       0.75333853      -0.42522638      -2.20456615
H        0.90800666      -4.92253036      -0.50241251        0       6.20904566       1.49339487     -13.48047348       1.26786597      -1.69166416       0.80335263
H       -2.80102909      -5.52617011      -1.25887258        0       4.94517008       1.27780127      -7.17215131      -2.09050466      -0.38276410       0.11107241
H       -1.55778955      -5.50411663      -2.47384021        0       3.80484161       1.29877435      -8.98898150       0.17368522      -0.36218410      -2.08362614
H       -1.28225028      -6.37053525      -0.95366754        0       5.33849291       1.57920859      -9.38481463       0.66864671      -1.90310474       0.65217704
H       -2.50276886      -4.24015430       0.91730853        0       7.92579281       1.65421354      -7.42201842      -2.02809977      -0.12541022       0.69404751
H       -0.98023487      -5.05386502       1.21334333        0       8.61281350       1.66086185      -9.87528056       0.73732117      -1.60399314       1.25111107
H       -1.03087858      -3.28479156       1.16546225        0       8.30512218       1.52310416      -9.48748989       0.53141595       1.48817630       1.32104248
H       -1.74739209      -3.10483088      -2.54001762        0       1.99266909       2.26755602      -8.55175208      -0.31041489      -0.15415143      -2.28668514
H       -2.76778978      -2.82382860      -1.12473323        0       3.89607320       1.85338561      -7.16945320      -2.20958365       0.38761046       0.42013175
